

@<TRIPOS>MOLECULE
Ligand for 1A6W
   28    28     1     0     1
SMALL
AM1BCC

@<TRIPOS>ATOM
      1 C1         42.7770   12.7480    2.0660 C.ar      1 NIP430   -0.1348  
      2 C2         41.7910   12.7990    3.0360 C.ar      1 NIP430   -0.0029  
      3 C3         40.8300   11.7790    3.1200 C.ar      1 NIP430   -0.2748  
      4 N3         39.8729   11.8931    4.0595 N.2       1 NIP430    0.3256  
      5 O3A        39.3129   13.0743    4.5606 O.co2     1 NIP430   -0.1795  
      6 O3B        39.1842   10.7089    4.3484 O.co2     1 NIP430   -0.2438  
      7 C4         40.9500   10.6580    2.2530 C.ar      1 NIP430    0.2571  
      8 O4         40.0498    9.6050    2.3664 O.3       1 NIP430   -0.4793  
      9 C5         41.9460   10.5290    1.2860 C.ar      1 NIP430   -0.0341  
     10 I5         42.0970    8.9160   -0.0050 I         1 NIP430   -0.0920  
     11 C6         42.8420   11.6290    1.2410 C.ar      1 NIP430   -0.0217  
     12 C7         43.7000   13.9080    2.0540 C.3       1 NIP430   -0.1074  
     13 C8         43.3320   14.9140    1.0070 C.2       1 NIP430    0.6585  
     14 O8         42.5280   15.8280    1.2580 O.2       1 NIP430   -0.5988  
     15 N9         43.8048   14.6802   -0.2303 N.am      1 NIP430   -0.5731  
     16 C10        43.3734   15.4988   -1.3467 C.3       1 NIP430    0.0883  
     17 C11        43.2084   14.7488   -2.6767 C.3       1 NIP430   -0.1148  
     18 H1         41.7607   13.6288    3.7328 H         1 NIP430    0.1855  
     19 H5         43.6389   11.5948    0.5069 H         1 NIP430    0.1503  
     20 H6         43.6671   14.4053    3.0346 H         1 NIP430    0.0938  
     21 H7         44.7208   13.5545    1.8468 H         1 NIP430    0.0686  
     22 H8         42.3995   15.9442   -1.0956 H         1 NIP430    0.0788  
     23 H9         44.1189   16.2919   -1.5050 H         1 NIP430    0.0381  
     24 H10        42.8806   15.4590   -3.4501 H         1 NIP430    0.0519  
     25 H11        44.1691   14.3072   -2.9800 H         1 NIP430    0.0344  
     26 H12        42.4497   13.9595   -2.5706 H         1 NIP430    0.0447  
     27 H2         44.4575   13.9377   -0.3811 H         1 NIP430    0.3061  
     28 H3         39.4201    9.7990    3.0508 H         1 NIP430    0.4756  
@<TRIPOS>BOND
     1    1    2 ar   
     2    1   11 ar   
     3    1   12 1    
     4    2    3 ar   
     5    3    4 1    
     6    3    7 ar   
     7    4    5 ar   
     8    4    6 ar   
     9    7    8 1    
    10    7    9 ar   
    11    9   10 1    
    12    9   11 ar   
    13   12   13 1    
    14   13   14 2    
    15   13   15 am   
    16   15   16 1    
    17   16   17 1    
    18    2   18 1    
    19   11   19 1    
    20   12   20 1    
    21   12   21 1    
    22   16   22 1    
    23   16   23 1    
    24   17   24 1    
    25   17   25 1    
    26   17   26 1    
    27   15   27 1    
    28    8   28 1    
@<TRIPOS>SUBSTRUCTURE
     1 NIP430      1 GROUP             0 H     ****    0 ROOT 
@<TRIPOS>SET
LAB$A_TYPE      STATIC     ATOMS    LABELGROUP SYSTEM 
28 1 2 3 4 5 6 7 8 9 10 11 12 13 14 15 16 17 18 19 \
 20 21 22 23 24 25 26 27 28
