REMARK  5 active torsions:
REMARK  status: ('A' for Active; 'I' for Inactive)
REMARK    1  A    between atoms: C1_1  and  C7_12 
REMARK    2  A    between atoms: C3_3  and  N3_4 
REMARK    3  A    between atoms: C4_7  and  O4_8 
REMARK    4  A    between atoms: C7_12  and  C8_13 
REMARK       I    between atoms: C8_13  and  N9_15 
REMARK    5  A    between atoms: N9_15  and  C10_16 
ROOT
ATOM      1  C1  NIP H 430      42.777  12.748   2.066  0.00  0.00    -0.046 A 
ATOM      2  C2  NIP H 430      41.791  12.799   3.036  0.00  0.00     0.046 A 
ATOM      3  C3  NIP H 430      40.830  11.779   3.120  0.00  0.00     0.137 A 
ATOM      4  C4  NIP H 430      40.950  10.658   2.253  0.00  0.00     0.115 A 
ATOM      5  C5  NIP H 430      41.946  10.529   1.286  0.00  0.00     0.042 A 
ATOM      6  I5  NIP H 430      42.097   8.916  -0.005  0.00  0.00    -0.042 I 
ATOM      7  C6  NIP H 430      42.842  11.629   1.241  0.00  0.00     0.028 A 
ENDROOT
BRANCH   1   8
ATOM      8  C7  NIP H 430      43.700  13.908   2.054  0.00  0.00     0.141 C 
BRANCH   8   9
ATOM      9  C8  NIP H 430      43.332  14.914   1.007  0.00  0.00     0.221 C 
ATOM     10  O8  NIP H 430      42.528  15.828   1.258  0.00  0.00    -0.273 OA
ATOM     11  N9  NIP H 430      43.805  14.680  -0.230  0.00  0.00    -0.361 N 
ATOM     12  H2  NIP H 430      44.458  13.938  -0.381  0.00  0.00     0.162 HD
BRANCH  11  13
ATOM     13  C10 NIP H 430      43.373  15.499  -1.347  0.00  0.00     0.118 C 
ATOM     14  C11 NIP H 430      43.208  14.749  -2.677  0.00  0.00     0.026 C 
ENDBRANCH  11  13
ENDBRANCH   8   9
ENDBRANCH   1   8
BRANCH   3  15
ATOM     15  N3  NIP H 430      39.873  11.893   4.059  0.00  0.00    -0.113 N 
ATOM     16  O3A NIP H 430      39.313  13.074   4.561  0.00  0.00    -0.532 OA
ATOM     17  O3B NIP H 430      39.184  10.709   4.348  0.00  0.00    -0.532 OA
ENDBRANCH   3  15
BRANCH   4  18
ATOM     18  O4  NIP H 430      40.050   9.605   2.366  0.00  0.00    -0.357 OA
ATOM     19  H3  NIP H 430      39.420   9.799   3.051  0.00  0.00     0.217 HD
ENDBRANCH   4  18
TORSDOF 5
