REMARK  5 active torsions:
REMARK  status: ('A' for Active; 'I' for Inactive)
REMARK    1  A    between atoms: S1_3  and  O2_1 
REMARK    2  A    between atoms: C3_6  and  S1_3 
REMARK    3  A    between atoms: CC2_17  and  C6_9 
REMARK    4  A    between atoms: C5_20  and  C4_13 
REMARK    5  A    between atoms: CD6_26  and  CC4_19 
ROOT
ATOM      1  NC1 SB2 A 800       1.347  14.432  28.206  0.00  0.00    -0.240 NA
ATOM      2  CC2 SB2 A 800       2.255  15.490  28.183  0.00  0.00     0.118 A 
ATOM      3  NC3 SB2 A 800       3.576  15.169  28.381  0.00  0.00    -0.233 NA
ATOM      4  CC4 SB2 A 800       3.553  13.784  28.563  0.00  0.00     0.091 A 
ATOM      5  C5  SB2 A 800       2.150  13.303  28.479  0.00  0.00     0.054 A 
ATOM      6  H13 SB2 A 800       0.856  14.339  27.249  0.00  0.00     0.135 HD
ENDROOT
BRANCH   2   7
ATOM      7  C6  SB2 A 800       1.831  16.922  27.961  0.00  0.00     0.004 A 
ATOM      8  C5  SB2 A 800       2.805  18.002  27.970  0.00  0.00     0.016 A 
ATOM      9  C4  SB2 A 800       2.424  19.347  27.791  0.00  0.00     0.021 A 
ATOM     10  C3  SB2 A 800       1.048  19.648  27.602  0.00  0.00     0.015 A 
ATOM     11  C2  SB2 A 800       0.054  18.632  27.579  0.00  0.00     0.021 A 
ATOM     12  C1  SB2 A 800       0.443  17.284  27.762  0.00  0.00     0.016 A 
BRANCH  10  13
ATOM     13  S1  SB2 A 800       0.566  21.338  27.392  0.00  0.00    -0.062 S 
ATOM     14  C1  SB2 A 800       1.745  22.420  28.276  0.00  0.00     0.114 C 
BRANCH  13  15
ATOM     15  O2  SB2 A 800      -0.962  21.644  27.790  0.00  0.00    -0.337 OA
ATOM     16  H1  SB2 A 800      -1.139  22.567  27.649  0.00  0.00     0.227 HD
ENDBRANCH  13  15
ENDBRANCH  10  13
ENDBRANCH   2   7
BRANCH   4  17
ATOM     17  CD6 SB2 A 800       4.755  13.110  28.880  0.00  0.00    -0.005 A 
ATOM     18  CD1 SB2 A 800       5.338  13.337  30.169  0.00  0.00     0.017 A 
ATOM     19  CD2 SB2 A 800       6.535  12.707  30.543  0.00  0.00     0.043 A 
ATOM     20  CD3 SB2 A 800       7.189  11.834  29.638  0.00  0.00     0.116 A 
ATOM     21  CD4 SB2 A 800       6.636  11.584  28.339  0.00  0.00     0.043 A 
ATOM     22  FD3 SB2 A 800       8.355  11.233  30.035  0.00  0.00    -0.206 F 
ATOM     23  CD5 SB2 A 800       5.427  12.219  27.960  0.00  0.00     0.017 A 
ENDBRANCH   4  17
BRANCH   5  24
ATOM     24  C4  SB2 A 800       1.558  11.919  28.601  0.00  0.00    -0.009 A 
ATOM     25  C3  SB2 A 800       0.546  11.415  27.688  0.00  0.00     0.032 A 
ATOM     26  C2  SB2 A 800       0.019  10.096  27.887  0.00  0.00     0.117 A 
ATOM     27  NB1 SB2 A 800       0.455   9.320  28.908  0.00  0.00    -0.273 NA
ATOM     28  C6  SB2 A 800       1.394   9.731  29.792  0.00  0.00     0.117 A 
ATOM     29  C5  SB2 A 800       1.975  11.023  29.686  0.00  0.00     0.032 A 
ENDBRANCH   5  24
TORSDOF 5
