

@<TRIPOS>MOLECULE
Ligand for 1A9U
   44    47     1     0     0
SMALL
AM1BCC

@<TRIPOS>ATOM
      1 O2         -0.9619   21.6443   27.7897 O.3       1 SB2800   -0.4747  
      2 C1          1.7451   22.4203   28.2757 C.3       1 SB2800   -0.1343  
      3 S1          0.5661   21.3383   27.3917 S.3       1 SB2800    0.3832  
      4 C1          0.4425   17.2843   27.7623 C.ar      1 SB2800   -0.1602  
      5 C2          0.0545   18.6323   27.5793 C.ar      1 SB2800   -0.0004  
      6 C3          1.0485   19.6483   27.6023 C.ar      1 SB2800   -0.2072  
      7 C4          2.4235   19.3473   27.7913 C.ar      1 SB2800   -0.0322  
      8 C5          2.8055   18.0023   27.9703 C.ar      1 SB2800   -0.1145  
      9 C6          1.8315   16.9223   27.9613 C.ar      1 SB2800    0.0284  
     10 NB1         0.4546    9.3204   28.9080 N.2       1 SB2800   -0.3309  
     11 C2          0.0186   10.0964   27.8870 C.ar      1 SB2800    0.2940  
     12 C3          0.5456   11.4154   27.6880 C.ar      1 SB2800   -0.1794  
     13 C4          1.5576   11.9194   28.6010 C.ar      1 SB2800   -0.0112  
     14 C5          1.9746   11.0234   29.6860 C.ar      1 SB2800   -0.2530  
     15 C6          1.3936    9.7314   29.7920 C.ar      1 SB2800    0.1842  
     16 NC1         1.3470   14.4320   28.2060 N.3       1 SB2800   -0.2731  
     17 CC2         2.2550   15.4900   28.1830 C.2       1 SB2800    0.3680  
     18 NC3         3.5760   15.1690   28.3810 N.2       1 SB2800   -0.6011  
     19 CC4         3.5530   13.7840   28.5630 C.2       1 SB2800    0.3911  
     20 C5          2.1500   13.3030   28.4790 C.2       1 SB2800   -0.0925  
     21 CD1         5.3380   13.3370   30.1690 C.ar      1 SB2800   -0.0774  
     22 CD2         6.5350   12.7070   30.5430 C.ar      1 SB2800   -0.1706  
     23 CD3         7.1890   11.8340   29.6380 C.ar      1 SB2800    0.1479  
     24 CD4         6.6360   11.5840   28.3390 C.ar      1 SB2800   -0.1675  
     25 CD5         5.4270   12.2190   27.9600 C.ar      1 SB2800   -0.0793  
     26 CD6         4.7550   13.1100   28.8800 C.ar      1 SB2800   -0.1588  
     27 FD3         8.3550   11.2330   30.0350 F         1 SB2800   -0.1275  
     28 H1         -1.1394   22.5668   27.6487 H         1 SB2800    0.4758  
     29 H2          2.7686   22.1650   27.9636 H         1 SB2800    0.1390  
     30 H3          1.5469   23.4732   28.0269 H         1 SB2800    0.1386  
     31 H4          1.6530   22.2676   29.3611 H         1 SB2800    0.1462  
     32 H5         -0.3135   16.5075   27.7535 H         1 SB2800    0.1552  
     33 H6         -0.9875   18.8873   27.4235 H         1 SB2800    0.1577  
     34 H7          3.1656   20.1374   27.7978 H         1 SB2800    0.1457  
     35 H8          3.8531   17.7667   28.1186 H         1 SB2800    0.1943  
     36 H9         -0.7387    9.7155   27.2113 H         1 SB2800    0.0350  
     37 H10         0.1933   12.0288   26.8666 H         1 SB2800    0.1377  
     38 H11         2.7216   11.3456   30.4023 H         1 SB2800    0.1626  
     39 H12         1.7058    9.0672   30.5898 H         1 SB2800    0.0398  
     40 H13         0.8560   14.3394   27.2486 H         1 SB2800    0.3131  
     41 H14         4.8467   14.0059   30.8663 H         1 SB2800    0.1457  
     42 H15         6.9593   12.8880   31.5239 H         1 SB2800    0.1585  
     43 H16         7.1392   10.9138   27.6514 H         1 SB2800    0.1598  
     44 H17         5.0050   12.0365   26.9783 H         1 SB2800    0.1446  
@<TRIPOS>BOND
     1    3    1 1    
     2    6    3 1    
     3    4    5 ar   
     4    5    6 ar   
     5    7    6 ar   
     6    8    7 ar   
     7    9    8 ar   
     8    9    4 ar   
     9   17    9 1    
    10   11   10 1    
    11   15   10 1    
    12   12   11 ar   
    13   13   12 ar   
    14   13   14 ar   
    15   14   15 ar   
    16   18   17 2    
    17   19   18 1    
    18   19   20 2    
    19   26   19 1    
    20   20   13 1    
    21   21   22 ar   
    22   26   21 ar   
    23   22   23 ar   
    24   23   24 ar   
    25   23   27 1    
    26   24   25 ar   
    27   25   26 ar   
    28   20   16 1    
    29   17   16 1    
    30    3    2 1    
    31    1   28 1    
    32    2   29 1    
    33    2   30 1    
    34    2   31 1    
    35    4   32 1    
    36    5   33 1    
    37    7   34 1    
    38    8   35 1    
    39   11   36 1    
    40   12   37 1    
    41   14   38 1    
    42   15   39 1    
    43   16   40 1    
    44   21   41 1    
    45   22   42 1    
    46   24   43 1    
    47   25   44 1    
@<TRIPOS>SUBSTRUCTURE
     1 SB2800      1 GROUP             0 A     ****    0 ROOT 
