REMARK  4 active torsions:
REMARK  status: ('A' for Active; 'I' for Inactive)
REMARK    1  A    between atoms: C1_1  and  O1_7 
REMARK    2  A    between atoms: C2_2  and  O2_8 
REMARK    3  A    between atoms: C3_3  and  O3_9 
REMARK    4  A    between atoms: C4_4  and  O4_10 
ROOT
ATOM      1  C1  FCA A 307      14.220  56.953  55.173  0.00  0.00     0.288 C 
ATOM      2  C2  FCA A 307      12.784  57.219  54.807  0.00  0.00     0.204 C 
ATOM      3  C3  FCA A 307      12.273  56.271  53.780  0.00  0.00     0.182 C 
ATOM      4  C4  FCA A 307      13.122  56.443  52.526  0.00  0.00     0.178 C 
ATOM      5  C5  FCA A 307      14.603  56.178  52.877  0.00  0.00     0.152 C 
ATOM      6  C6  FCA A 307      15.606  56.429  51.764  0.00  0.00     0.042 C 
ATOM      7  O5  FCA A 307      15.019  57.054  53.912  0.00  0.00    -0.351 OA
ENDROOT
BRANCH   1   8
ATOM      8  O1  FCA A 307      14.403  55.718  55.733  0.00  0.00    -0.369 OA
ATOM      9  H9  FCA A 307      13.893  55.662  56.532  0.00  0.00     0.212 HD
ENDBRANCH   1   8
BRANCH   2  10
ATOM     10  O2  FCA A 307      11.952  57.262  56.060  0.00  0.00    -0.388 OA
ATOM     11  H10 FCA A 307      12.337  57.885  56.666  0.00  0.00     0.210 HD
ENDBRANCH   2  10
BRANCH   3  12
ATOM     12  O3  FCA A 307      10.870  56.530  53.492  0.00  0.00    -0.390 OA
ATOM     13  H11 FCA A 307      10.365  56.416  54.288  0.00  0.00     0.210 HD
ENDBRANCH   3  12
BRANCH   4  14
ATOM     14  O4  FCA A 307      12.972  57.772  51.989  0.00  0.00    -0.390 OA
ATOM     15  H12 FCA A 307      12.057  57.919  51.779  0.00  0.00     0.210 HD
ENDBRANCH   4  14
TORSDOF 4
