

@<TRIPOS>MOLECULE
Ligand for 1ABF
   23    23     1     0     0
SMALL
AM1BCC

@<TRIPOS>ATOM
      1 C1         14.2200   56.9530   55.1730 C.3       1 FCA307    0.3141  
      2 C2         12.7840   57.2190   54.8070 C.3       1 FCA307    0.0384  
      3 C3         12.2730   56.2710   53.7800 C.3       1 FCA307    0.1106  
      4 C4         13.1220   56.4430   52.5260 C.3       1 FCA307    0.1203  
      5 C5         14.6030   56.1780   52.8770 C.3       1 FCA307    0.1473  
      6 C6         15.6060   56.4290   51.7640 C.3       1 FCA307   -0.0864  
      7 O1         14.4030   55.7180   55.7330 O.3       1 FCA307   -0.6187  
      8 O2         11.9520   57.2620   56.0600 O.3       1 FCA307   -0.6106  
      9 O3         10.8700   56.5300   53.4920 O.3       1 FCA307   -0.6061  
     10 O4         12.9720   57.7720   51.9890 O.3       1 FCA307   -0.5885  
     11 O5         15.0190   57.0540   53.9120 O.3       1 FCA307   -0.3944  
     12 H1         14.5436   57.7227   55.8891 H         1 FCA307    0.0812  
     13 H2         12.7354   58.2154   54.3435 H         1 FCA307    0.0827  
     14 H3         12.3831   55.2376   54.1403 H         1 FCA307    0.0596  
     15 H4         12.8081   55.7092   51.7691 H         1 FCA307    0.0551  
     16 H5         14.6982   55.1296   53.1959 H         1 FCA307    0.0587  
     17 H6         16.6169   56.2059   52.1359 H         1 FCA307    0.0513  
     18 H7         15.3871   55.7748   50.9073 H         1 FCA307    0.0404  
     19 H8         15.5638   57.4828   51.4516 H         1 FCA307    0.0663  
     20 H9         13.8928   55.6622   56.5324 H         1 FCA307    0.4209  
     21 H10        12.3367   57.8848   56.6655 H         1 FCA307    0.4150  
     22 H11        10.3647   56.4161   54.2883 H         1 FCA307    0.4242  
     23 H12        12.0574   57.9192   51.7786 H         1 FCA307    0.4185  
@<TRIPOS>BOND
     1    1   11 1    
     2    1    7 1    
     3    1    2 1    
     4    2    8 1    
     5    2    3 1    
     6    3    9 1    
     7    3    4 1    
     8    4   10 1    
     9    4    5 1    
    10    5   11 1    
    11    5    6 1    
    12    1   12 1    
    13    2   13 1    
    14    3   14 1    
    15    4   15 1    
    16    5   16 1    
    17    6   17 1    
    18    6   18 1    
    19    6   19 1    
    20    7   20 1    
    21    8   21 1    
    22    9   22 1    
    23   10   23 1    
@<TRIPOS>SUBSTRUCTURE
     1 FCA307      1 GROUP             0 A     ****    0 ROOT 
