

@<TRIPOS>MOLECULE
Ligand for 1MRK
   32    34     1     0     0
SMALL
AM1BCC

@<TRIPOS>ATOM
      1 N1         15.3520   -0.8200   38.6070 N.ar      1 FMC1     -0.7436  
      2 C2         14.6950   -1.9030   39.0430 C.ar      1 FMC1      0.6531  
      3 N3         15.1290   -3.1500   39.1270 N.ar      1 FMC1     -0.6848  
      4 C4         16.4330   -3.2660   38.6900 C.ar      1 FMC1      0.3337  
      5 C5         17.1270   -2.2220   38.0810 C.ar      1 FMC1     -0.3530  
      6 C6         16.5790   -0.9130   38.0870 C.ar      1 FMC1      0.6843  
      7 N6         17.2740    0.1670   37.7280 N.pl3     1 FMC1     -0.9262  
      8 N7         18.3360   -2.7110   37.6900 N.pl3     1 FMC1      0.0162  
      9 N8         18.4240   -4.0470   37.9680 N.2       1 FMC1     -0.4752  
     10 C9         17.2870   -4.4160   38.5600 C.2       1 FMC1      0.2230  
     11 C1'        16.9810   -5.8540   38.9370 C.3       1 FMC1      0.0969  
     12 C2'        15.4960   -6.0710   39.3420 C.3       1 FMC1      0.1358  
     13 O2'        15.1730   -5.3460   40.5370 O.3       1 FMC1     -0.5571  
     14 C3'        15.5310   -7.6480   39.2700 C.3       1 FMC1      0.1301  
     15 O3'        16.5000   -8.2800   40.1350 O.3       1 FMC1     -0.5580  
     16 C4'        16.0060   -7.7890   37.8080 C.3       1 FMC1      0.1000  
     17 O4'        17.0920   -6.7810   37.8070 O.3       1 FMC1     -0.3886  
     18 C5'        14.9470   -7.5880   36.6600 C.3       1 FMC1      0.1088  
     19 O5'        13.7780   -8.4070   36.7490 O.3       1 FMC1     -0.6118  
     20 H1         13.6749   -1.7359   39.3695 H         1 FMC1      0.0593  
     21 H2         18.2182    0.0629   37.3297 H         1 FMC1      0.4091  
     22 H3         16.8666    1.1053   37.8490 H         1 FMC1      0.4228  
     23 H4         19.0799   -2.1530   37.2470 H         1 FMC1      0.3121  
     24 H5         17.6618   -6.1608   39.7446 H         1 FMC1      0.1027  
     25 H6         14.8062   -5.7111   38.5645 H         1 FMC1      0.0543  
     26 H7         14.2614   -5.5002   40.7555 H         1 FMC1      0.4128  
     27 H8         14.5369   -8.0902   39.4314 H         1 FMC1      0.0612  
     28 H9         16.4469   -9.2219   40.0228 H         1 FMC1      0.4041  
     29 H10        16.4196   -8.7964   37.6532 H         1 FMC1      0.0894  
     30 H11        14.6148   -6.5395   36.6761 H         1 FMC1      0.0367  
     31 H12        15.4324   -7.8128   35.6989 H         1 FMC1      0.0449  
     32 H13        13.2066   -8.2112   36.0157 H         1 FMC1      0.4071  
@<TRIPOS>BOND
     1    1    2 ar   
     2    1    6 ar   
     3    2    3 ar   
     4    3    4 ar   
     5    4    5 ar   
     6    4   10 1    
     7    5    6 ar   
     8    5    8 1    
     9    6    7 1    
    10    8    9 1    
    11    9   10 2    
    12   10   11 1    
    13   11   12 1    
    14   11   17 1    
    15   12   13 1    
    16   12   14 1    
    17   14   15 1    
    18   14   16 1    
    19   16   17 1    
    20   16   18 1    
    21   18   19 1    
    22    2   20 1    
    23    7   21 1    
    24    7   22 1    
    25    8   23 1    
    26   11   24 1    
    27   12   25 1    
    28   13   26 1    
    29   14   27 1    
    30   15   28 1    
    31   16   29 1    
    32   18   30 1    
    33   18   31 1    
    34   19   32 1    
@<TRIPOS>SUBSTRUCTURE
     1 FMC1        1 PERM              0 ****  ****    0 ROOT 
