REMARK  6 active torsions:
REMARK  status: ('A' for Active; 'I' for Inactive)
REMARK    1  A    between atoms: C6_6  and  N6_7 
REMARK    2  A    between atoms: C9_10  and  C1'_11 
REMARK    3  A    between atoms: C2'_12  and  O2'_13 
REMARK    4  A    between atoms: C3'_14  and  O3'_15 
REMARK    5  A    between atoms: C4'_16  and  C5'_18 
REMARK    6  A    between atoms: C5'_18  and  O5'_19 
ROOT
ATOM      1  N1  FMC d   1      15.352  -0.820  38.607  0.00  0.00    -0.222 NA
ATOM      2  C2  FMC d   1      14.695  -1.903  39.043  0.00  0.00     0.236 C 
ATOM      3  N3  FMC d   1      15.129  -3.150  39.127  0.00  0.00    -0.237 NA
ATOM      4  C4  FMC d   1      16.433  -3.266  38.690  0.00  0.00     0.119 A 
ATOM      5  C5  FMC d   1      17.127  -2.222  38.081  0.00  0.00     0.126 A 
ATOM      6  C6  FMC d   1      16.579  -0.913  38.087  0.00  0.00     0.153 C 
ATOM      7  N7  FMC d   1      18.336  -2.711  37.690  0.00  0.00    -0.272 N 
ATOM      8  N8  FMC d   1      18.424  -4.047  37.968  0.00  0.00    -0.174 NA
ATOM      9  C9  FMC d   1      17.287  -4.416  38.560  0.00  0.00     0.117 A 
ATOM     10  H4  FMC d   1      19.080  -2.153  37.247  0.00  0.00     0.189 HD
ENDROOT
BRANCH   9  11
ATOM     11  C1' FMC d   1      16.981  -5.854  38.937  0.00  0.00     0.209 C 
ATOM     12  C2' FMC d   1      15.496  -6.071  39.342  0.00  0.00     0.184 C 
ATOM     13  C3' FMC d   1      15.531  -7.648  39.270  0.00  0.00     0.180 C 
ATOM     14  C4' FMC d   1      16.006  -7.789  37.808  0.00  0.00     0.177 C 
ATOM     15  O4' FMC d   1      17.092  -6.781  37.807  0.00  0.00    -0.367 OA
BRANCH  12  16
ATOM     16  O2' FMC d   1      15.173  -5.346  40.537  0.00  0.00    -0.390 OA
ATOM     17  H7  FMC d   1      14.261  -5.500  40.755  0.00  0.00     0.210 HD
ENDBRANCH  12  16
BRANCH  13  18
ATOM     18  O3' FMC d   1      16.500  -8.280  40.135  0.00  0.00    -0.390 OA
ATOM     19  H9  FMC d   1      16.447  -9.222  40.023  0.00  0.00     0.210 HD
ENDBRANCH  13  18
BRANCH  14  20
ATOM     20  C5' FMC d   1      14.947  -7.588  36.660  0.00  0.00     0.198 C 
BRANCH  20  21
ATOM     21  O5' FMC d   1      13.778  -8.407  36.749  0.00  0.00    -0.398 OA
ATOM     22  H13 FMC d   1      13.207  -8.211  36.016  0.00  0.00     0.209 HD
ENDBRANCH  20  21
ENDBRANCH  14  20
ENDBRANCH   9  11
BRANCH   6  23
ATOM     23  N6  FMC d   1      17.274   0.167  37.728  0.00  0.00    -0.382 N 
ATOM     24  H2  FMC d   1      18.218   0.063  37.330  0.00  0.00     0.157 HD
ATOM     25  H3  FMC d   1      16.867   1.105  37.849  0.00  0.00     0.157 HD
ENDBRANCH   6  23
TORSDOF 6
