REMARK  6 active torsions:
REMARK  status: ('A' for Active; 'I' for Inactive)
REMARK    1  A    between atoms: N1_1  and  C2_4 
REMARK    2  A    between atoms: C2_4  and  C3_5 
REMARK    3  A    between atoms: C3_5  and  O7_6 
REMARK    4  A    between atoms: C3_5  and  C4_7 
REMARK    5  A    between atoms: C3_5  and  C6_11 
REMARK    6  A    between atoms: C4_7  and  C5_8 
ROOT
ATOM      1  C3  NTC d   1      36.120  34.004  70.879  0.00  0.00     0.176 C 
ENDROOT
BRANCH   1   2
ATOM      2  C2  NTC d   1      35.554  33.648  72.260  0.00  0.00     0.251 C 
BRANCH   2   3
ATOM      3  N1  NTC d   1      34.183  33.790  72.711  0.00  0.00    -0.152 N 
ATOM      4  O1  NTC d   1      34.272  33.970  74.198  0.00  0.00    -0.536 OA
ATOM      5  O2  NTC d   1      32.950  33.907  71.865  0.00  0.00    -0.536 OA
ENDBRANCH   2   3
ENDBRANCH   1   2
BRANCH   1   6
ATOM      6  O7  NTC d   1      36.406  32.724  70.253  0.00  0.00    -0.377 OA
ATOM      7  H3  NTC d   1      36.763  32.868  69.384  0.00  0.00     0.211 HD
ENDBRANCH   1   6
BRANCH   1   8
ATOM      8  C4  NTC d   1      37.233  34.938  71.505  0.00  0.00     0.164 C 
BRANCH   8   9
ATOM      9  C5  NTC d   1      37.898  34.740  72.847  0.00  0.00     0.176 C 
ATOM     10  O3  NTC d   1      38.935  34.118  72.874  0.00  0.00    -0.648 OA
ATOM     11  O4  NTC d   1      37.376  35.200  73.833  0.00  0.00    -0.648 OA
ENDBRANCH   8   9
ENDBRANCH   1   8
BRANCH   1  12
ATOM     12  C6  NTC d   1      35.146  34.836  69.972  0.00  0.00     0.211 C 
ATOM     13  O5  NTC d   1      34.360  34.210  69.192  0.00  0.00    -0.646 OA
ATOM     14  O6  NTC d   1      35.160  36.111  70.065  0.00  0.00    -0.646 OA
ENDBRANCH   1  12
TORSDOF 6
