

@<TRIPOS>MOLECULE
Ligand for 1NIS
   18    17     1     0     0
SMALL
AM1BCC

@<TRIPOS>ATOM
      1 N1         34.1830   33.7900   72.7110 N.pl3     1 NTC1      0.2387  
      2 O1         34.2716   33.9697   74.1976 O.co2     1 NTC1     -0.3118  
      3 O2         32.9499   33.9070   71.8649 O.co2     1 NTC1     -0.2441  
      4 C2         35.5536   33.6476   72.2596 C.3       1 NTC1     -0.0679  
      5 C3         36.1196   34.0036   70.8786 C.3       1 NTC1      0.0486  
      6 O7         36.4056   32.7236   70.2526 O.3       1 NTC1     -0.6111  
      7 C4         37.2326   34.9376   71.5046 C.3       1 NTC1     -0.1693  
      8 C5         37.8976   34.7396   72.8466 C.2       1 NTC1      0.9114  
      9 O3         38.9346   34.1176   72.8736 O.co2     1 NTC1     -0.8689  
     10 O4         37.3756   35.1996   73.8326 O.co2     1 NTC1     -0.8843  
     11 C6         35.1456   34.8356   69.9716 C.2       1 NTC1      0.8883  
     12 O5         34.3596   34.2096   69.1916 O.co2     1 NTC1     -0.8478  
     13 O6         35.1596   36.1106   70.0646 O.co2     1 NTC1     -0.8429  
     14 H1         35.7845   32.5803   72.3922 H         1 NTC1      0.1486  
     15 H2         36.1474   34.2422   72.9694 H         1 NTC1      0.1056  
     16 H3         36.7630   32.8685   69.3844 H         1 NTC1      0.4163  
     17 H4         36.7784   35.9383   71.5512 H         1 NTC1      0.0431  
     18 H5         38.0534   34.9411   70.7723 H         1 NTC1      0.0475  
@<TRIPOS>BOND
     1    1    2 ar   
     2    1    3 ar   
     3    1    4 1    
     4    4    5 1    
     5    5    6 1    
     6    5    7 1    
     7    5   11 1    
     8    7    8 1    
     9    8    9 1    
    10    8   10 1    
    11   11   12 1    
    12   11   13 1    
    13    4   14 1    
    14    4   15 1    
    15    6   16 1    
    16    7   17 1    
    17    7   18 1    
@<TRIPOS>SUBSTRUCTURE
     1 NTC1        1 PERM              0 ****  ****    0 ROOT 
