@<TRIPOS>MOLECULE
results/1A6W_c40.pdbqt
 19 19 0 0 0
SMALL
GASTEIGER

@<TRIPOS>ATOM
      1  C1       -40.9700  -30.6130   21.9920 C.ar  430  NIP430     -0.0460
      2  C2       -40.6480  -29.8520   20.8810 C.ar  430  NIP430      0.0460
      3  C3       -39.4680  -29.0920   20.8650 C.ar  430  NIP430      0.1370
      4  C4       -38.5760  -29.1960   21.9680 C.ar  430  NIP430      0.1150
      5  C5       -38.8240  -29.9790   23.0940 C.ar  430  NIP430      0.0420
      6  I5       -37.5450  -30.0990   24.7190 I     430  NIP430     -0.0420
      7  C6       -40.0610  -30.6730   23.0440 C.ar  430  NIP430      0.0280
      8  C7       -42.2640  -31.3310   21.9010 C.3   430  NIP430      0.1410
      9  C8       -42.0830  -32.7960   21.6440 C.2   430  NIP430      0.2210
     10  O8       -41.8910  -33.5870   22.5830 O.2   430  NIP430     -0.2730
     11  N9       -41.9980  -33.1630   20.3530 N.am  430  NIP430     -0.3610
     12  H2       -42.1700  -32.4920   19.6320 H     430  NIP430      0.1620
     13  C10      -41.6580  -34.5290   20.0010 C.3   430  NIP430      0.1180
     14  C11      -42.0700  -34.9570   18.5850 C.3   430  NIP430      0.0260
     15  N3       -39.2180  -28.3430   19.7750 N.pl3 430  NIP430     -0.1130
     16  O3A      -39.5530  -28.6370   18.4480 O.2   430  NIP430     -0.5320
     17  O3B      -38.8400  -27.0210   20.0400 O.2   430  NIP430     -0.5320
     18  O4       -37.3700  -28.5050   21.9420 O.3   430  NIP430     -0.3570
     19  H3       -37.4830  -27.6880   21.4690 H     430  NIP430      0.2170
@<TRIPOS>BOND
     1    16    15    2
     2    14    13    1
     3    12    11    1
     4    15    17    2
     5    15     3    1
     6    13    11    1
     7    11     9   am
     8     3     2   ar
     9     3     4   ar
    10     2     1   ar
    11    19    18    1
    12     9     8    1
    13     9    10    2
    14     8     1    1
    15    18     4    1
    16     4     5   ar
    17     1     7   ar
    18     7     5   ar
    19     5     6    1
