@<TRIPOS>MOLECULE
results/1A9U_c3.pdbqt
 29 32 0 0 0
SMALL
GASTEIGER

@<TRIPOS>ATOM
      1  NC1      -49.1040  -22.0520   11.0030 N.ar  800  SB2800     -0.2400
      2  CC2      -48.7860  -23.3800   11.2840 C.ar  800  SB2800      0.1180
      3  NC3      -47.5370  -23.8060   10.9020 N.ar  800  SB2800     -0.2330
      4  CC4      -46.9740  -22.6750   10.3050 C.ar  800  SB2800      0.0910
      5  C5       -47.9580  -21.5630   10.3390 C.ar  800  SB2800      0.0540
      6  H13      -49.2860  -21.5080   11.9180 H     800  SB2800      0.1350
      7  C6       -49.7510  -24.3210   11.9650 C.ar  800  SB2800      0.0040
      8  C5       -50.9480  -24.7890   11.2850 C.ar  800  SB2800      0.0160
      9  C4       -51.8730  -25.6460   11.9150 C.ar  800  SB2800      0.0210
     10  C3       -51.6230  -26.0560   13.2520 C.ar  800  SB2800      0.0150
     11  C2       -50.4670  -25.6340   13.9630 C.ar  800  SB2800      0.0210
     12  C1       -49.5440  -24.7710   13.3260 C.ar  800  SB2800      0.0160
     13  S1       -52.7910  -27.1200   14.0500 S.3   800  SB2800     -0.0620
     14  C1       -53.8810  -26.1260   15.1290 C.3   800  SB2800      0.1140
     15  O2       -52.1290  -28.3630   14.8270 O.3   800  SB2800     -0.3370
     16  H1       -52.4990  -29.1710   14.4900 H     800  SB2800      0.2270
     17  CD6      -45.6940  -22.7750    9.7110 C.ar  800  SB2800     -0.0050
     18  CD1      -45.4700  -23.8240    8.7610 C.ar  800  SB2800      0.0170
     19  CD2      -44.2200  -23.9840    8.1420 C.ar  800  SB2800      0.0430
     20  CD3      -43.1560  -23.1030    8.4560 C.ar  800  SB2800      0.1160
     21  CD4      -43.3430  -22.0420    9.4030 C.ar  800  SB2800      0.0430
     22  FD3      -41.9490  -23.2850    7.8320 F     800  SB2800     -0.2060
     23  CD5      -44.6040  -21.8790   10.0290 C.ar  800  SB2800      0.0170
     24  C4       -47.8760  -20.1400    9.8400 C.ar  800  SB2800     -0.0090
     25  C3       -47.9320  -18.9920   10.7300 C.ar  800  SB2800      0.0320
     26  C2       -47.8700  -17.6720   10.1740 C.ar  800  SB2800      0.1170
     27  NB1      -47.7560  -17.4850    8.8370 N.ar  800  SB2800     -0.2730
     28  C6       -47.6990  -18.5120    7.9560 C.ar  800  SB2800      0.1170
     29  C5       -47.7590  -19.8580    8.4050 C.ar  800  SB2800      0.0320
@<TRIPOS>BOND
     1    22    20    1
     2    28    29   ar
     3    28    27   ar
     4    19    20   ar
     5    19    18   ar
     6    29    24   ar
     7    20    21   ar
     8    18    17   ar
     9    27    26   ar
    10    21    23   ar
    11    17    23   ar
    12    17     4    1
    13    24     5    1
    14    24    25   ar
    15    26    25   ar
    16     4     5   ar
    17     4     3   ar
    18     5     1   ar
    19     3     2   ar
    20     1     2   ar
    21     1     6    1
    22     2     7    1
    23     8     9   ar
    24     8     7   ar
    25     9    10   ar
    26     7    12   ar
    27    10    11   ar
    28    10    13    1
    29    12    11   ar
    30    13    15    1
    31    13    14    1
    32    16    15    1
