@<TRIPOS>MOLECULE
results/1ABF_c38.pdbqt
 15 15 0 0 0
SMALL
GASTEIGER

@<TRIPOS>ATOM
      1  C1       -38.6980  -29.5930   22.7010 C.3   307  FCA307      0.2880
      2  C2       -37.7750  -28.9880   21.6760 C.3   307  FCA307      0.2040
      3  C3       -38.4990  -28.1460   20.6850 C.3   307  FCA307      0.1820
      4  C4       -39.4970  -29.0400   19.9580 C.3   307  FCA307      0.1780
      5  C5       -40.4540  -29.6760   20.9910 C.3   307  FCA307      0.1520
      6  C6       -41.4380  -30.6970   20.4450 C.3   307  FCA307      0.0420
      7  O5       -39.7110  -30.4030   21.9550 O.3   307  FCA307     -0.3510
      8  O1       -39.3350  -28.6500   23.4610 O.3   307  FCA307     -0.3690
      9  H9       -40.1070  -28.3500   22.9980 H     307  FCA307      0.2120
     10  O2       -36.6550  -28.2710   22.3790 O.3   307  FCA307     -0.3880
     11  H10      -36.4940  -27.4430   21.9390 H     307  FCA307      0.2100
     12  O3       -37.5680  -27.5420   19.7450 O.3   307  FCA307     -0.3900
     13  H11      -37.9160  -27.6290   18.8660 H     307  FCA307      0.2100
     14  O4       -38.8120  -30.0700   19.2190 O.3   307  FCA307     -0.3900
     15  H12      -38.5260  -30.7460   19.8240 H     307  FCA307      0.2100
@<TRIPOS>BOND
     1    13    12    1
     2    14    15    1
     3    14     4    1
     4    12     3    1
     5     4     3    1
     6     4     5    1
     7     6     5    1
     8     3     2    1
     9     5     7    1
    10     2    10    1
    11     2     1    1
    12    11    10    1
    13     7     1    1
    14     1     8    1
    15     9     8    1
