@<TRIPOS>MOLECULE
results/1MRK_c23.pdbqt
 25 27 0 0 0
SMALL
GASTEIGER

@<TRIPOS>ATOM
      1  N1       -39.4760  -28.3340   22.5230 N.ar    1  FMC1       -0.2220
      2  C2       -39.5190  -29.3980   23.3360 C.ar    1  FMC1        0.2360
      3  N3       -39.9710  -30.6140   23.0770 N.ar    1  FMC1       -0.2370
      4  C4       -40.4390  -30.7180   21.7830 C.ar    1  FMC1        0.1190
      5  C5       -40.5700  -29.6230   20.9310 C.ar    1  FMC1        0.1260
      6  C6       -40.0090  -28.3720   21.2990 C.ar    1  FMC1        0.1530
      7  N7       -41.1510  -30.0680   19.7820 N.ar    1  FMC1       -0.2720
      8  N8       -41.4560  -31.3970   19.8850 N.ar    1  FMC1       -0.1740
      9  C9       -41.0520  -31.8160   21.0850 C.ar    1  FMC1        0.1170
     10  H4       -41.3340  -29.4850   18.9530 H       1  FMC1        0.1890
     11  C1'      -41.3030  -33.2240   21.5950 C.3     1  FMC1        0.2090
     12  C2'      -42.8120  -33.5320   21.8030 C.3     1  FMC1        0.1840
     13  C3'      -42.6470  -35.0960   21.9410 C.3     1  FMC1        0.1800
     14  C4'      -41.9380  -35.3600   20.5950 C.3     1  FMC1        0.1770
     15  O4'      -40.9450  -34.2610   20.6230 O.3     1  FMC1       -0.3670
     16  O2'      -43.3730  -32.7070   22.8340 O.3     1  FMC1       -0.3900
     17  H7       -44.2520  -33.0120   23.0300 H       1  FMC1        0.2100
     18  O3'      -41.7800  -35.5290   23.0130 O.3     1  FMC1       -0.3900
     19  H9       -42.2690  -35.5220   23.8280 H       1  FMC1        0.2100
     20  C5'      -42.8160  -35.3950   19.2880 C.3     1  FMC1        0.1980
     21  O5'      -42.5170  -34.3880   18.3170 O.3     1  FMC1       -0.3980
     22  H13      -42.6370  -33.5330   18.7130 H       1  FMC1        0.2090
     23  N6       -39.8980  -27.3480   20.4520 N.pl3   1  FMC1       -0.3820
     24  H2       -40.1960  -26.4060   20.7410 H       1  FMC1        0.1570
     25  H3       -39.5140  -27.5000   19.5080 H       1  FMC1        0.1570
@<TRIPOS>BOND
     1    21    22    1
     2    21    20    1
     3    10     7    1
     4    20    14    1
     5    25    23    1
     6     7     8   ar
     7     7     5   ar
     8     8     9   ar
     9    23    24    1
    10    23     6    1
    11    14    15    1
    12    14    13    1
    13    15    11    1
    14     5     6   ar
    15     5     4   ar
    16     9    11    1
    17     9     4   ar
    18     6     1   ar
    19    11    12    1
    20     4     3   ar
    21    12    13    1
    22    12    16    1
    23    13    18    1
    24     1     2   ar
    25    16    17    1
    26    18    19    1
    27     3     2   ar
