@<TRIPOS>MOLECULE
results/1NIS_c38.pdbqt
 14 13 0 0 0
SMALL
GASTEIGER

@<TRIPOS>ATOM
      1  C3       -40.1100  -30.2950   21.1300 C.3     1  NTC1        0.1760
      2  C2       -40.3720  -29.1990   20.0880 C.3     1  NTC1        0.2510
      3  N1       -39.4430  -28.6850   19.1010 N.pl3   1  NTC1       -0.1520
      4  O1       -38.4020  -27.9420   19.8850 O.2     1  NTC1       -0.5360
      5  O2       -39.4210  -28.9740   17.6290 O.2     1  NTC1       -0.5360
      6  O7       -38.9230  -30.9850   20.6530 O.3     1  NTC1       -0.3770
      7  H3       -38.9590  -31.8980   20.9140 H       1  NTC1        0.2110
      8  C4       -41.5740  -30.8740   20.9830 C.3     1  NTC1        0.1640
      9  C5       -42.2470  -31.8260   21.9450 C.2     1  NTC1        0.1760
     10  O3       -41.6830  -32.8670   22.1930 O.co2   1  NTC1       -0.6480
     11  O4       -43.3120  -31.5200   22.4230 O.co2   1  NTC1       -0.6480
     12  C6       -39.8690  -29.7630   22.5870 C.2     1  NTC1        0.2110
     13  O5       -40.2160  -28.5700   22.8620 O.co2   1  NTC1       -0.6460
     14  O6       -39.3550  -30.5520   23.4510 O.co2   1  NTC1       -0.6460
@<TRIPOS>BOND
     1     5     3    2
     2     3     4    2
     3     3     2    1
     4     2     1    1
     5     6     7    1
     6     6     1    1
     7     8     1    1
     8     8     9    1
     9     1    12    1
    10     9    10   ar
    11     9    11   ar
    12    12    13   ar
    13    12    14   ar
